ACCESS-OM3
1900 1 1 0 0 0

#########################################################################################################
#                                                                                                       #
# DO NOT EDIT! Instead, edit diag_table_source.yaml and run make_diag_table.py to re-generate this file #
#                                                                                                       #
#########################################################################################################

################# full domain monthly ###############

# monthly 3d BGC fields

"access-om3.mom6.3d.bgc.1mon.mean.%4yr-%2mo", 1, "months", 1, "days", "time", 1, "years"
"generic_wombatlite", "caco3", "caco3", "access-om3.mom6.3d.bgc.1mon.mean.%4yr-%2mo", "all", "average", "none", 2
"generic_wombatlite", "dic", "dic", "access-om3.mom6.3d.bgc.1mon.mean.%4yr-%2mo", "all", "average", "none", 2
"generic_wombatlite", "alk", "alk", "access-om3.mom6.3d.bgc.1mon.mean.%4yr-%2mo", "all", "average", "none", 2
"generic_wombatlite", "dicr", "dicr", "access-om3.mom6.3d.bgc.1mon.mean.%4yr-%2mo", "all", "average", "none", 2
"generic_wombatlite", "dicp", "dicp", "access-om3.mom6.3d.bgc.1mon.mean.%4yr-%2mo", "all", "average", "none", 2
"generic_wombatlite", "no3", "no3", "access-om3.mom6.3d.bgc.1mon.mean.%4yr-%2mo", "all", "average", "none", 2
"generic_wombatlite", "phy", "phy", "access-om3.mom6.3d.bgc.1mon.mean.%4yr-%2mo", "all", "average", "none", 2
"generic_wombatlite", "det", "det", "access-om3.mom6.3d.bgc.1mon.mean.%4yr-%2mo", "all", "average", "none", 2
"generic_wombatlite", "o2", "o2", "access-om3.mom6.3d.bgc.1mon.mean.%4yr-%2mo", "all", "average", "none", 2
"generic_wombatlite", "zoo", "zoo", "access-om3.mom6.3d.bgc.1mon.mean.%4yr-%2mo", "all", "average", "none", 2
"generic_wombatlite", "pchl", "pchl", "access-om3.mom6.3d.bgc.1mon.mean.%4yr-%2mo", "all", "average", "none", 2
"generic_wombatlite", "fe", "fe", "access-om3.mom6.3d.bgc.1mon.mean.%4yr-%2mo", "all", "average", "none", 2
"generic_wombatlite", "npp3d", "npp3d", "access-om3.mom6.3d.bgc.1mon.mean.%4yr-%2mo", "all", "average", "none", 2
"generic_wombatlite", "pprod_gross", "pprod_gross", "access-om3.mom6.3d.bgc.1mon.mean.%4yr-%2mo", "all", "average", "none", 2
"generic_wombatlite", "zprod_gross", "zprod_gross", "access-om3.mom6.3d.bgc.1mon.mean.%4yr-%2mo", "all", "average", "none", 2
"generic_wombatlite", "radbio", "radbio", "access-om3.mom6.3d.bgc.1mon.mean.%4yr-%2mo", "all", "average", "none", 2
"generic_wombatlite", "caldiss", "caldiss", "access-om3.mom6.3d.bgc.1mon.mean.%4yr-%2mo", "all", "average", "none", 2
"generic_wombatlite", "co3", "co3", "access-om3.mom6.3d.bgc.1mon.mean.%4yr-%2mo", "all", "average", "none", 2
"generic_wombatlite", "omega_ara", "omega_ara", "access-om3.mom6.3d.bgc.1mon.mean.%4yr-%2mo", "all", "average", "none", 2
"generic_wombatlite", "omega_cal", "omega_cal", "access-om3.mom6.3d.bgc.1mon.mean.%4yr-%2mo", "all", "average", "none", 2
"generic_wombatlite", "dissrat", "dissrat", "access-om3.mom6.3d.bgc.1mon.mean.%4yr-%2mo", "all", "average", "none", 2
"generic_wombatlite", "reminr", "reminr", "access-om3.mom6.3d.bgc.1mon.mean.%4yr-%2mo", "all", "average", "none", 2
"generic_wombatlite", "detremi", "detremi", "access-om3.mom6.3d.bgc.1mon.mean.%4yr-%2mo", "all", "average", "none", 2
"generic_wombatlite", "pic2poc", "pic2poc", "access-om3.mom6.3d.bgc.1mon.mean.%4yr-%2mo", "all", "average", "none", 2
"generic_wombatlite", "co2_star", "co2_star", "access-om3.mom6.3d.bgc.1mon.mean.%4yr-%2mo", "all", "average", "none", 2
"generic_wombatlite", "caco3_sediment", "caco3_sediment", "access-om3.mom6.3d.bgc.1mon.mean.%4yr-%2mo", "all", "average", "none", 2
"generic_wombatlite", "caco3bury", "caco3bury", "access-om3.mom6.3d.bgc.1mon.mean.%4yr-%2mo", "all", "average", "none", 2
"generic_wombatlite", "det_sediment", "det_sediment", "access-om3.mom6.3d.bgc.1mon.mean.%4yr-%2mo", "all", "average", "none", 2
"generic_wombatlite", "detbury", "detbury", "access-om3.mom6.3d.bgc.1mon.mean.%4yr-%2mo", "all", "average", "none", 2
"generic_wombatlite", "radmid", "radmid", "access-om3.mom6.3d.bgc.1mon.mean.%4yr-%2mo", "all", "average", "none", 2
"generic_wombatlite", "radmld", "radmld", "access-om3.mom6.3d.bgc.1mon.mean.%4yr-%2mo", "all", "average", "none", 2
"generic_wombatlite", "phy_mu", "phy_mu", "access-om3.mom6.3d.bgc.1mon.mean.%4yr-%2mo", "all", "average", "none", 2
"generic_wombatlite", "phy_mumax", "phy_mumax", "access-om3.mom6.3d.bgc.1mon.mean.%4yr-%2mo", "all", "average", "none", 2
"generic_wombatlite", "pchl_mu", "pchl_mu", "access-om3.mom6.3d.bgc.1mon.mean.%4yr-%2mo", "all", "average", "none", 2
"generic_wombatlite", "htotal", "htotal", "access-om3.mom6.3d.bgc.1mon.mean.%4yr-%2mo", "all", "average", "none", 2
"generic_wombatlite", "phygrow", "phygrow", "access-om3.mom6.3d.bgc.1mon.mean.%4yr-%2mo", "all", "average", "none", 2
"generic_wombatlite", "phyresp", "phyresp", "access-om3.mom6.3d.bgc.1mon.mean.%4yr-%2mo", "all", "average", "none", 2
"generic_wombatlite", "phymort", "phymort", "access-om3.mom6.3d.bgc.1mon.mean.%4yr-%2mo", "all", "average", "none", 2
"generic_wombatlite", "zooresp", "zooresp", "access-om3.mom6.3d.bgc.1mon.mean.%4yr-%2mo", "all", "average", "none", 2
"generic_wombatlite", "zoomort", "zoomort", "access-om3.mom6.3d.bgc.1mon.mean.%4yr-%2mo", "all", "average", "none", 2

# monthly 2d BGC fields
"access-om3.mom6.2d.bgc.1mon.mean.%4yr-%2mo", 1, "months", 1, "days", "time", 1, "years"
"generic_wombatlite", "alk_btf", "alk_btf", "access-om3.mom6.2d.bgc.1mon.mean.%4yr-%2mo", "all", "average", "none", 2
"generic_wombatlite", "dic_btf", "dic_btf", "access-om3.mom6.2d.bgc.1mon.mean.%4yr-%2mo", "all", "average", "none", 2
"generic_wombatlite", "dic_int100", "dic_int100", "access-om3.mom6.2d.bgc.1mon.mean.%4yr-%2mo", "all", "average", "none", 2
"generic_wombatlite", "fe_int100", "fe_int100", "access-om3.mom6.2d.bgc.1mon.mean.%4yr-%2mo", "all", "average", "none", 2
"generic_wombatlite", "no3_int100", "no3_int100", "access-om3.mom6.2d.bgc.1mon.mean.%4yr-%2mo", "all", "average", "none", 2
"generic_wombatlite", "npp_int100", "npp_int100", "access-om3.mom6.2d.bgc.1mon.mean.%4yr-%2mo", "all", "average", "none", 2
"generic_wombatlite", "phy_int100", "phy_int100", "access-om3.mom6.2d.bgc.1mon.mean.%4yr-%2mo", "all", "average", "none", 2
"generic_wombatlite", "zoo_int100", "zoo_int100", "access-om3.mom6.2d.bgc.1mon.mean.%4yr-%2mo", "all", "average", "none", 2
"generic_wombatlite", "pprod_gross_int100", "pprod_gross_int100", "access-om3.mom6.2d.bgc.1mon.mean.%4yr-%2mo", "all", "average", "none", 2
"generic_wombatlite", "radbio_int100", "radbio_int100", "access-om3.mom6.2d.bgc.1mon.mean.%4yr-%2mo", "all", "average", "none", 2
"generic_wombatlite", "pprod_gross_2d", "pprod_gross_2d", "access-om3.mom6.2d.bgc.1mon.mean.%4yr-%2mo", "all", "average", "none", 2
"generic_wombatlite", "npp1", "npp1", "access-om3.mom6.2d.bgc.1mon.mean.%4yr-%2mo", "all", "average", "none", 2
"generic_wombatlite", "npp2d", "npp2d", "access-om3.mom6.2d.bgc.1mon.mean.%4yr-%2mo", "all", "average", "none", 2
"generic_wombatlite", "sedalk", "sedalk", "access-om3.mom6.2d.bgc.1mon.mean.%4yr-%2mo", "all", "average", "none", 2
"generic_wombatlite", "sedco3", "sedco3", "access-om3.mom6.2d.bgc.1mon.mean.%4yr-%2mo", "all", "average", "none", 2
"generic_wombatlite", "seddic", "seddic", "access-om3.mom6.2d.bgc.1mon.mean.%4yr-%2mo", "all", "average", "none", 2
"generic_wombatlite", "seddep", "seddep", "access-om3.mom6.2d.bgc.1mon.mean.%4yr-%2mo", "all", "average", "none", 2
"generic_wombatlite", "sedno3", "sedno3", "access-om3.mom6.2d.bgc.1mon.mean.%4yr-%2mo", "all", "average", "none", 2
"generic_wombatlite", "sedhtotal", "sedhtotal", "access-om3.mom6.2d.bgc.1mon.mean.%4yr-%2mo", "all", "average", "none", 2
"generic_wombatlite", "sedomega_cal", "sedomega_cal", "access-om3.mom6.2d.bgc.1mon.mean.%4yr-%2mo", "all", "average", "none", 2
"generic_wombatlite", "sedsalt", "sedsalt", "access-om3.mom6.2d.bgc.1mon.mean.%4yr-%2mo", "all", "average", "none", 2
"generic_wombatlite", "dicr_btf", "dicr_btf", "access-om3.mom6.2d.bgc.1mon.mean.%4yr-%2mo", "all", "average", "none", 2
"generic_wombatlite", "fbury", "fbury", "access-om3.mom6.2d.bgc.1mon.mean.%4yr-%2mo", "all", "average", "none", 2
"generic_wombatlite", "dic_stf", "dic_stf", "access-om3.mom6.2d.bgc.1mon.mean.%4yr-%2mo", "all", "average", "none", 2
"generic_wombatlite", "dic_stf_gas", "dic_stf_gas", "access-om3.mom6.2d.bgc.1mon.mean.%4yr-%2mo", "all", "average", "none", 2
"generic_wombatlite", "pco2", "pco2", "access-om3.mom6.2d.bgc.1mon.mean.%4yr-%2mo", "all", "average", "none", 2
"generic_wombatlite", "paco2", "paco2", "access-om3.mom6.2d.bgc.1mon.mean.%4yr-%2mo", "all", "average", "none", 2
"generic_wombatlite", "export_prod", "export_prod", "access-om3.mom6.2d.bgc.1mon.mean.%4yr-%2mo", "all", "average", "none", 2
"generic_wombatlite", "export_inorg", "export_inorg", "access-om3.mom6.2d.bgc.1mon.mean.%4yr-%2mo", "all", "average", "none", 2
"generic_wombatlite", "det_sediment", "det_sediment", "access-om3.mom6.2d.bgc.1mon.mean.%4yr-%2mo", "all", "average", "none", 2
"generic_wombatlite", "caco3_sediment", "caco3_sediment", "access-om3.mom6.2d.bgc.1mon.mean.%4yr-%2mo", "all", "average", "none", 2
"generic_wombatlite", "det_sed_bury", "det_sed_bury", "access-om3.mom6.2d.bgc.1mon.mean.%4yr-%2mo", "all", "average", "none", 2
"generic_wombatlite", "caco3_sed_bury", "caco3_sed_bury", "access-om3.mom6.2d.bgc.1mon.mean.%4yr-%2mo", "all", "average", "none", 2
"generic_wombatlite", "zeuphot", "zeuphot", "access-om3.mom6.2d.bgc.1mon.mean.%4yr-%2mo", "all", "average", "none", 2
"generic_wombatlite", "caco3_sed_depst", "caco3_sed_depst", "access-om3.mom6.2d.bgc.1mon.mean.%4yr-%2mo", "all", "average", "none", 2
"generic_wombatlite", "caco3_sed_remin", "caco3_sed_remin", "access-om3.mom6.2d.bgc.1mon.mean.%4yr-%2mo", "all", "average", "none", 2
"generic_wombatlite", "caco3_btm_reservoir", "caco3_btm_reservoir", "access-om3.mom6.2d.bgc.1mon.mean.%4yr-%2mo", "all", "average", "none", 2
"generic_wombatlite", "det_btm_reservoir", "det_btm_reservoir", "access-om3.mom6.2d.bgc.1mon.mean.%4yr-%2mo", "all", "average", "none", 2
"generic_wombatlite", "det_sed_depst", "det_sed_depst", "access-om3.mom6.2d.bgc.1mon.mean.%4yr-%2mo", "all", "average", "none", 2
"generic_wombatlite", "det_sed_remin", "det_sed_remin", "access-om3.mom6.2d.bgc.1mon.mean.%4yr-%2mo", "all", "average", "none", 2


# 3D physics  monthly 
"access-om3.mom6.h.z%4yr-%2mo", 1,  "months", 1, "days",   "time", 1, "months"
"ocean_model_z", "uo",           "uo",           "access-om3.mom6.h.z%4yr-%2mo", "all", "mean", "none", 2
"ocean_model_z", "vo",           "vo",           "access-om3.mom6.h.z%4yr-%2mo", "all", "mean", "none", 2
"ocean_model_z", "thetao",       "thetao",       "access-om3.mom6.h.z%4yr-%2mo", "all", "mean", "none", 2
"ocean_model_z", "so",           "so",           "access-om3.mom6.h.z%4yr-%2mo", "all", "mean", "none", 2
"ocean_model_z", "KE",           "KE",           "access-om3.mom6.h.z%4yr-%2mo", "all", "mean", "none", 2
"ocean_model_z", "rhopot0",      "rhopot0",      "access-om3.mom6.h.z%4yr-%2mo", "all", "mean", "none", 2
"ocean_model_z", "h",      "h",      "access-om3.mom6.h.z%4yr-%2mo", "all", "mean", "none", 2
"ocean_model_z", "e",      "e",      "access-om3.mom6.h.z%4yr-%2mo", "all", "mean", "none", 2

# 2D physics monthly
"access-om3.mom6.h.mld%4yr-%2mo", 1,  "months", 1, "days",   "time", 1, "years"
"ocean_model", "MLD_003", "MLD_003", "access-om3.mom6.h.mld%4yr-%2mo", "all", "mean", "none", 2

#################  Full domain daily #################

#2D BGC daily
"access-om3.mom6.2d.bgc.nwshelf.daily.mean.dic_int100.%4yr-%2da", 1, "days", 1, "days", "time", 1, "years"
"generic_wombatlite", "dic_int100", "dic_int100", "access-om3.mom6.2d.bgc.nwshelf.daily.mean.dic_int100.%4yr-%2da", "all", "mean", "none", 2
"access-om3.mom6.2d.bgc.nwshelf.daily.mean.fe_int100.%4yr-%2da", 1, "days", 1, "days", "time", 1, "years"
"generic_wombatlite", "fe_int100", "fe_int100", "access-om3.mom6.2d.bgc.nwshelf.daily.mean.fe_int100.%4yr-%2da", "all", "mean", "none", 2
"access-om3.mom6.2d.bgc.nwshelf.daily.mean.no3_int100.%4yr-%2da", 1, "days", 1, "days", "time", 1, "years"
"generic_wombatlite", "no3_int100", "no3_int100", "access-om3.mom6.2d.bgc.nwshelf.daily.mean.no3_int100.%4yr-%2da", "all", "mean", "none", 2
"access-om3.mom6.2d.bgc.nwshelf.daily.mean.npp_int100.%4yr-%2da", 1, "days", 1, "days", "time", 1, "years"
"generic_wombatlite", "npp_int100", "npp_int100", "access-om3.mom6.2d.bgc.nwshelf.daily.mean.npp_int100.%4yr-%2da", "all", "mean", "none", 2
"access-om3.mom6.2d.bgc.nwshelf.daily.mean.phy_int100.%4yr-%2da", 1, "days", 1, "days", "time", 1, "years"
"generic_wombatlite", "phy_int100", "phy_int100", "access-om3.mom6.2d.bgc.nwshelf.daily.mean.phy_int100.%4yr-%2da", "all", "mean", "none", 2
"access-om3.mom6.2d.bgc.nwshelf.daily.mean.zoo_int100.%4yr-%2da", 1, "days", 1, "days", "time", 1, "years"
"generic_wombatlite", "zoo_int100", "zoo_int100", "access-om3.mom6.2d.bgc.nwshelf.daily.mean.zoo_int100.%4yr-%2da", "all", "mean", "none", 2
"access-om3.mom6.2d.bgc.nwshelf.daily.mean.dic_stf.%4yr-%2da", 1, "days", 1, "days", "time", 1, "years"
"generic_wombatlite", "dic_stf", "dic_stf", "access-om3.mom6.2d.bgc.nwshelf.daily.mean.dic_stf.%4yr-%2da", "all", "mean", "none", 2
"access-om3.mom6.2d.bgc.nwshelf.daily.mean.npp2d.%4yr-%2da", 1, "days", 1, "days", "time", 1, "years"
"generic_wombatlite", "npp2d", "npp2d", "access-om3.mom6.2d.bgc.nwshelf.daily.mean.npp2d.%4yr-%2da", "all", "mean", "none", 2
"access-om3.mom6.2d.bgc.nwshelf.daily.mean.pco2.%4yr-%2da", 1, "days", 1, "days", "time", 1, "years"
"generic_wombatlite", "pco2", "pco2", "access-om3.mom6.2d.bgc.nwshelf.daily.mean.pco2.%4yr-%2da", "all", "average", "none", 2


# daily 3d BGC fields

"access-om3.mom6.3d.bgc.1day.mean.%4yr-%2mo", 1, "days", 1, "days", "time", 1, "years"
"generic_wombatlite", "caco3", "caco3", "access-om3.mom6.3d.bgc.1day.mean.%4yr-%2mo", "all", "average", "none", 2
"generic_wombatlite", "dic", "dic", "access-om3.mom6.3d.bgc.1day.mean.%4yr-%2mo", "all", "average", "none", 2
"generic_wombatlite", "alk", "alk", "access-om3.mom6.3d.bgc.1day.mean.%4yr-%2mo", "all", "average", "none", 2
"generic_wombatlite", "no3", "no3", "access-om3.mom6.3d.bgc.1day.mean.%4yr-%2mo", "all", "average", "none", 2
"generic_wombatlite", "phy", "phy", "access-om3.mom6.3d.bgc.1day.mean.%4yr-%2mo", "all", "average", "none", 2
"generic_wombatlite", "det", "det", "access-om3.mom6.3d.bgc.1day.mean.%4yr-%2mo", "all", "average", "none", 2
"generic_wombatlite", "o2", "o2", "access-om3.mom6.3d.bgc.1day.mean.%4yr-%2mo", "all", "average", "none", 2
"generic_wombatlite", "zoo", "zoo", "access-om3.mom6.3d.bgc.1day.mean.%4yr-%2mo", "all", "average", "none", 2
"generic_wombatlite", "co3", "co3", "access-om3.mom6.3d.bgc.1day.mean.%4yr-%2mo", "all", "average", "none", 2
"generic_wombatlite", "omega_ara", "omega_ara", "access-om3.mom6.3d.bgc.1day.mean.%4yr-%2mo", "all", "average", "none", 2
"generic_wombatlite", "omega_cal", "omega_cal", "access-om3.mom6.3d.bgc.1day.mean.%4yr-%2mo", "all", "average", "none", 2
"generic_wombatlite", "co2_star", "co2_star", "access-om3.mom6.3d.bgc.1day.mean.%4yr-%2mo", "all", "average", "none", 2
"generic_wombatlite", "npp3d", "npp3d", "access-om3.mom6.3d.bgc.1day.mean.%4yr-%2mo", "all", "average", "none", 2


# 3D dyes daily
"access-om3.mom6.h.dyes%4yr-%2mo",                    1,  "days", 1, "days",   "time", 1, "years"
"ocean_model_z", "dye001",      "dye001",      "access-om3.mom6.h.dyes%4yr-%2mo", "all", "mean", "none", 2
"ocean_model_z", "dye002",      "dye002",      "access-om3.mom6.h.dyes%4yr-%2mo", "all", "mean", "none", 2
"ocean_model_z", "dye003",      "dye003",      "access-om3.mom6.h.dyes%4yr-%2mo", "all", "mean", "none", 2
"ocean_model_z", "dye004",      "dye004",      "access-om3.mom6.h.dyes%4yr-%2mo", "all", "mean", "none", 2
"ocean_model_z", "dye005",      "dye005",      "access-om3.mom6.h.dyes%4yr-%2mo", "all", "mean", "none", 2

"access-om3.mom6.h.daily%4yr-%2mo",                    1,  "days", 1, "days",   "time", 1, "years"
"ocean_model_z", "thetao",       "thetao",       "access-om3.mom6.h.daily%4yr-%2mo", "all", "mean", "none", 2
"ocean_model_z", "so",           "so",           "access-om3.mom6.h.daily%4yr-%2mo", "all", "mean", "none", 2
"ocean_model_z", "rhopot0",      "rhopot0",      "access-om3.mom6.h.daily%4yr-%2mo", "all", "mean", "none", 2
"ocean_model_z", "h",      "h",      "access-om3.mom6.h.daily%4yr-%2mo", "all", "mean", "none", 2
"ocean_model_z", "e",      "e",      "access-om3.mom6.h.daily%4yr-%2mo", "all", "mean", "none", 2
"ocean_model_z", "uo",      "uo",      "access-om3.mom6.h.daily%4yr-%2mo", "all", "mean", "none", 2
"ocean_model_z", "vo",      "vo",      "access-om3.mom6.h.daily%4yr-%2mo", "all", "mean", "none", 2


# 2D physics daily
"access-om3.mom6.h.daily.mld%4yr-%2mo", 1,  "days", 1, "days",   "time", 1, "years"
"ocean_model", "MLD_003", "MLD_003", "access-om3.mom6.h.daily.mld%4yr-%2mo", "all", "mean", "none", 2



################# full domain hourly #################

#2D physics surface hourly
"access-om3.mom6.2d.sfc.hourly%4yr-%2da", 1, "hours", 1, "days", "time", 1, "years"
"ocean_model", "SSH", "SSH", "access-om3.mom6.2d.sfc.hourly%4yr-%2da", "all", "mean", "none", 2


# 3D physics hourly
"access-om3.mom6.h.z.nwshelf.hourly.uo.%4yr-%2da", 1,  "hours", 1, "days",   "time", 1, "years"
"ocean_model_z", "uo",           "uo",           "access-om3.mom6.h.z.nwshelf.hourly.uo.%4yr-%2da", "all", "mean", "none", 2
"access-om3.mom6.h.z.nwshelf.hourly.vo.%4yr-%2da", 1,  "hours", 1, "days",   "time", 1, "years"
"ocean_model_z", "vo",           "vo",           "access-om3.mom6.h.z.nwshelf.hourly.vo.%4yr-%2da", "all", "mean", "none", 2
#"access-om3.mom6.h.z.nwshelf.hourly.KE.%4yr-%2da", 1,  "hours", 1, "days",   "time", 1, "years"
#"ocean_model_z", "KE",           "KE",           "access-om3.mom6.h.z.nwshelf.hourly.KE.%4yr-%2da", "all", "mean", "none", 2
"access-om3.mom6.h.z.nwshelf.hourly.h.%4yr-%2da", 1,  "hours", 1, "days",   "time", 1, "years"
"ocean_model_z", "h",      "h",      "access-om3.mom6.h.z.nwshelf.hourly.h.%4yr-%2da", "all", "mean", "none", 2


#2D BGC hourly
"access-om3.mom6.2d.bgc.nwshelf.hourly.mean.npp2d.%4yr-%2da", 1, "hours", 1, "days", "time", 1, "years"
"generic_wombatlite", "npp2d", "npp2d", "access-om3.mom6.2d.bgc.nwshelf.hourly.mean.npp2d.%4yr-%2da", "all", "mean", "none", 2
"access-om3.mom6.2d.bgc.nwshelf.hourly.mean.pco2.%4yr-%2da", 1, "hours", 1, "days", "time", 1, "years"
"generic_wombatlite", "pco2", "pco2", "access-om3.mom6.2d.bgc.nwshelf.hourly.mean.pco2.%4yr-%2da", "all", "mean", "none", 2
"access-om3.mom6.2d.bgc.nwshelf.hourly.mean.alk_btf.%4yr-%2da", 1, "hours", 1, "days", "time", 1, "years"
"generic_wombatlite", "alk_btf", "alk_btf", "access-om3.mom6.2d.bgc.nwshelf.hourly.mean.alk_btf.%4yr-%2da", "all", "mean", "none", 2
"access-om3.mom6.2d.bgc.nwshelf.hourly.mean.dic_btf.%4yr-%2da", 1, "hours", 1, "days", "time", 1, "years"
"generic_wombatlite", "dic_btf", "dic_btf", "access-om3.mom6.2d.bgc.nwshelf.hourly.mean.dic_btf.%4yr-%2da", "all", "mean", "none", 2


################# Ningaloo #################


# 3D physics ningaloo domain hourly
"access-om3.mom6.h.nd.hourly.z%4yr-%2mo", 1,  "hours", 1, "days",   "time", 1, "years"
"ocean_model_z", "uo",           "uo",           "access-om3.mom6.h.nd.hourly.z%4yr-%2mo", "all", "mean", "113.45 113.75 -22.55 -22.35 -1 -1", 2
"ocean_model_z", "vo",           "vo",           "access-om3.mom6.h.nd.hourly.z%4yr-%2mo", "all", "mean", "113.45 113.75 -22.55 -22.35 -1 -1", 2
"ocean_model_z", "h",            "h",            "access-om3.mom6.h.nd.hourly.z%4yr-%2mo", "all", "mean", "113.45 113.75 -22.55 -22.35 -1 -1", 2
"ocean_model_z", "e",            "e",            "access-om3.mom6.h.nd.hourly.z%4yr-%2mo", "all", "mean", "113.45 113.75 -22.55 -22.35 -1 -1", 2
"ocean_model_z", "thetao",       "thetao",       "access-om3.mom6.h.nd.hourly.z%4yr-%2mo", "all", "mean", "113.45 113.75 -22.55 -22.35 -1 -1", 2
"ocean_model_z", "so",           "so",           "access-om3.mom6.h.nd.hourly.z%4yr-%2mo", "all", "mean", "113.45 113.75 -22.55 -22.35 -1 -1", 2
"ocean_model_z", "rhopot0",      "rhopot0",      "access-om3.mom6.h.nd.hourly.z%4yr-%2mo", "all", "mean", "113.45 113.75 -22.55 -22.35 -1 -1", 2


# 2D physics ningaloo domain hourly

"access-om3.mom6.h.nd.hourly.mld%4yr-%2mo", 1,  "hours", 1, "days",   "time", 1, "years"
"ocean_model", "MLD_003", "MLD_003", "access-om3.mom6.h.nd.hourly.mld%4yr-%2mo", "all", "mean", "113.45 113.75 -22.55 -22.35 -1 -1", 2


# hourly 2d BGC fields ningaloo domain region 

"access-om3.mom6.2d.bgc.nd.hourly.mean.%4yr-%2mo", 1, "hours", 1, "days", "time", 1, "years"
"generic_wombatlite", "dic_int100", "dic_int100", "access-om3.mom6.2d.bgc.nd.hourly.mean.%4yr-%2mo", "all", "mean", "113.45 113.75 -22.55 -22.35 -1 -1", 2
"generic_wombatlite", "fe_int100", "fe_int100", "access-om3.mom6.2d.bgc.nd.hourly.mean.%4yr-%2mo", "all", "mean", "113.45 113.75 -22.55 -22.35 -1 -1", 2
"generic_wombatlite", "no3_int100", "no3_int100", "access-om3.mom6.2d.bgc.nd.hourly.mean.%4yr-%2mo","all", "mean", "113.45 113.75 -22.55 -22.35 -1 -1", 2
"generic_wombatlite", "npp_int100", "npp_int100", "access-om3.mom6.2d.bgc.nd.hourly.mean.%4yr-%2mo","all", "mean", "113.45 113.75 -22.55 -22.35 -1 -1", 2
"generic_wombatlite", "phy_int100", "phy_int100", "access-om3.mom6.2d.bgc.nd.hourly.mean.%4yr-%2mo", "all", "mean", "113.45 113.75 -22.55 -22.35 -1 -1", 2
"generic_wombatlite", "zoo_int100", "zoo_int100", "access-om3.mom6.2d.bgc.nd.hourly.mean.%4yr-%2mo", "all", "mean", "113.45 113.75 -22.55 -22.35 -1 -1", 2
"generic_wombatlite", "pprod_gross_int100", "pprod_gross_int100", "access-om3.mom6.2d.bgc.nd.hourly.mean.%4yr-%2mo", "all", "mean", "113.45 113.75 -22.55 -22.35 -1 -1", 2
"generic_wombatlite", "pprod_gross_2d", "pprod_gross_2d", "access-om3.mom6.2d.bgc.nd.hourly.mean.%4yr-%2mo", "all", "mean", "113.45 113.75 -22.55 -22.35 -1 -1", 2
"generic_wombatlite", "npp1", "npp1", "access-om3.mom6.2d.bgc.nd.hourly.mean.%4yr-%2mo", "all", "mean", "113.45 113.75 -22.55 -22.35 -1 -1", 2
"generic_wombatlite", "npp2d", "npp2d", "access-om3.mom6.2d.bgc.nd.hourly.mean.%4yr-%2mo", "all", "mean", "113.45 113.75 -22.55 -22.35 -1 -1", 2
"generic_wombatlite", "dic_stf", "dic_stf", "access-om3.mom6.2d.bgc.nd.hourly.mean.%4yr-%2mo", "all", "mean", "113.45 113.75 -22.55 -22.35 -1 -1", 2
"generic_wombatlite", "pco2", "pco2", "access-om3.mom6.2d.bgc.nd.hourly.mean.%4yr-%2mo", "all", "mean", "113.45 113.75 -22.55 -22.35 -1 -1", 2



# 3d BGC fields Ningaloo domain hourly

"access-om3.mom6.3d.bgc.nd.hourly.mean.%4yr-%2mo", 1, "hours", 1, "days", "time", 1, "years"
"generic_wombatlite", "caco3", "caco3", "access-om3.mom6.3d.bgc.nd.hourly.mean.%4yr-%2mo", "all",  "mean", "113.45 113.75 -22.55 -22.35 -1 -1", 2
"generic_wombatlite", "dic", "dic", "access-om3.mom6.3d.bgc.nd.hourly.mean.%4yr-%2mo", "all",  "mean", "113.45 113.75 -22.55 -22.35 -1 -1", 2
"generic_wombatlite", "alk", "alk", "access-om3.mom6.3d.bgc.nd.hourly.mean.%4yr-%2mo", "all",  "mean", "113.45 113.75 -22.55 -22.35 -1 -1", 2
"generic_wombatlite", "dicr", "dicr", "access-om3.mom6.3d.bgc.nd.hourly.mean.%4yr-%2mo", "all",  "mean", "113.45 113.75 -22.55 -22.35 -1 -1", 2
"generic_wombatlite", "dicp", "dicp", "access-om3.mom6.3d.bgc.nd.hourly.mean.%4yr-%2mo", "all",  "mean", "113.45 113.75 -22.55 -22.35 -1 -1", 2
"generic_wombatlite", "no3", "no3", "access-om3.mom6.3d.bgc.nd.hourly.mean.%4yr-%2mo", "all",  "mean", "113.45 113.75 -22.55 -22.35 -1 -1", 2
"generic_wombatlite", "phy", "phy", "access-om3.mom6.3d.bgc.nd.hourly.mean.%4yr-%2mo", "all",  "mean", "113.45 113.75 -22.55 -22.35 -1 -1", 2
"generic_wombatlite", "det", "det", "access-om3.mom6.3d.bgc.nd.hourly.mean.%4yr-%2mo", "all",  "mean", "113.45 113.75 -22.55 -22.35 -1 -1", 2
"generic_wombatlite", "o2", "o2", "access-om3.mom6.3d.bgc.nd.hourly.mean.%4yr-%2mo", "all",  "mean", "113.45 113.75 -22.55 -22.35 -1 -1", 2
"generic_wombatlite", "zoo", "zoo", "access-om3.mom6.3d.bgc.nd.hourly.mean.%4yr-%2mo", "all",  "mean", "113.45 113.75 -22.55 -22.35 -1 -1", 2
"generic_wombatlite", "pchl", "pchl", "access-om3.mom6.3d.bgc.nd.hourly.mean.%4yr-%2mo", "all",  "mean", "113.45 113.75 -22.55 -22.35 -1 -1", 2
"generic_wombatlite", "fe", "fe", "access-om3.mom6.3d.bgc.nd.hourly.mean.%4yr-%2mo", "all",  "mean", "113.45 113.75 -22.55 -22.35 -1 -1", 2
"generic_wombatlite", "pprod_gross", "pprod_gross", "access-om3.mom6.3d.bgc.nd.hourly.mean.%4yr-%2mo", "all",  "mean", "113.45 113.75 -22.55 -22.35 -1 -1", 2
"generic_wombatlite", "zprod_gross", "zprod_gross", "access-om3.mom6.3d.bgc.nd.hourly.mean.%4yr-%2mo", "all",  "mean", "113.45 113.75 -22.55 -22.35 -1 -1", 2
"generic_wombatlite", "radbio", "radbio", "access-om3.mom6.3d.bgc.nd.hourly.mean.%4yr-%2mo", "all",  "mean", "113.45 113.75 -22.55 -22.35 -1 -1", 2
"generic_wombatlite", "npp3d", "npp3d", "access-om3.mom6.3d.bgc.nd.hourly.mean.%4yr-%2mo", "all",  "mean", "113.45 113.75 -22.55 -22.35 -1 -1", 2

################# Shelf domain hourly #################

# 3D physics shelf domain hourly
"access-om3.mom6.h.shelf.hourly.z%4yr-%2mo", 1,  "hours", 1, "days",   "time", 1, "years"
"ocean_model_z", "uo",           "uo",           "access-om3.mom6.h.shelf.hourly.z%4yr-%2mo", "all", "mean", "118 121 -20.5 -14 -1 -1", 2
"ocean_model_z", "vo",           "vo",           "access-om3.mom6.h.shelf.hourly.z%4yr-%2mo", "all", "mean", "118 121 -20.5 -14 -1 -1", 2
"ocean_model_z", "h",            "h",            "access-om3.mom6.h.shelf.hourly.z%4yr-%2mo", "all", "mean", "118 121 -20.5 -14 -1 -1", 2
"ocean_model_z", "e",            "e",            "access-om3.mom6.h.shelf.hourly.z%4yr-%2mo", "all", "mean", "118 121 -20.5 -14 -1 -1", 2
"ocean_model_z", "thetao",       "thetao",       "access-om3.mom6.h.shelf.hourly.z%4yr-%2mo", "all", "mean", "118 121 -20.5 -14 -1 -1", 2
"ocean_model_z", "so",           "so",           "access-om3.mom6.h.shelf.hourly.z%4yr-%2mo", "all", "mean", "118 121 -20.5 -14 -1 -1", 2
"ocean_model_z", "rhopot0",      "rhopot0",      "access-om3.mom6.h.shelf.hourly.z%4yr-%2mo", "all", "mean", "118 121 -20.5 -14 -1 -1", 2


# 2D physics shelf domain hourly

"access-om3.mom6.h.shelf.hourly.mld%4yr-%2mo", 1,  "hours", 1, "days",   "time", 1, "years"
"ocean_model", "MLD_003", "MLD_003", "access-om3.mom6.h.shelf.hourly.mld%4yr-%2mo", "all", "mean", "118 121 -20.5 -14 -1 -1", 2


# hourly 2d BGC fields shelf domain region 

"access-om3.mom6.2d.bgc.shelf.hourly.mean.%4yr-%2mo", 1, "hours", 1, "days", "time", 1, "years"
"generic_wombatlite", "dic_int100", "dic_int100", "access-om3.mom6.2d.bgc.shelf.hourly.mean.%4yr-%2mo", "all", "mean", "118 121 -20.5 -14 -1 -1", 2
"generic_wombatlite", "alk_int100", "alk_int100", "access-om3.mom6.2d.bgc.shelf.hourly.mean.%4yr-%2mo", "all", "mean", "118 121 -20.5 -14 -1 -1", 2
"generic_wombatlite", "fe_int100", "fe_int100", "access-om3.mom6.2d.bgc.shelf.hourly.mean.%4yr-%2mo", "all", "mean", "118 121 -20.5 -14 -1 -1", 2
"generic_wombatlite", "no3_int100", "no3_int100", "access-om3.mom6.2d.bgc.shelf.hourly.mean.%4yr-%2mo","all", "mean", "118 121 -20.5 -14 -1 -1", 2
"generic_wombatlite", "npp_int100", "npp_int100", "access-om3.mom6.2d.bgc.shelf.hourly.mean.%4yr-%2mo","all", "mean", "118 121 -20.5 -14 -1 -1", 2
"generic_wombatlite", "phy_int100", "phy_int100", "access-om3.mom6.2d.bgc.shelf.hourly.mean.%4yr-%2mo", "all", "mean", "118 121 -20.5 -14 -1 -1", 2
"generic_wombatlite", "zoo_int100", "zoo_int100", "access-om3.mom6.2d.bgc.shelf.hourly.mean.%4yr-%2mo", "all", "mean", "118 121 -20.5 -14 -1 -1", 2
"generic_wombatlite", "pprod_gross_int100", "pprod_gross_int100", "access-om3.mom6.2d.bgc.shelf.hourly.mean.%4yr-%2mo", "all", "mean", "118 121 -20.5 -14 -1 -1", 2
"generic_wombatlite", "pprod_gross_2d", "pprod_gross_2d", "access-om3.mom6.2d.bgc.shelf.hourly.mean.%4yr-%2mo", "all", "mean", "118 121 -20.5 -14 -1 -1", 2
"generic_wombatlite", "npp1", "npp1", "access-om3.mom6.2d.bgc.shelf.hourly.mean.%4yr-%2mo", "all", "mean", "118 121 -20.5 -14 -1 -1", 2
"generic_wombatlite", "npp2d", "npp2d", "access-om3.mom6.2d.bgc.shelf.hourly.mean.%4yr-%2mo", "all", "mean", "118 121 -20.5 -14 -1 -1", 2
"generic_wombatlite", "dic_stf", "dic_stf", "access-om3.mom6.2d.bgc.shelf.hourly.mean.%4yr-%2mo", "all", "mean", "118 121 -20.5 -14 -1 -1", 2
"generic_wombatlite", "pco2", "pco2", "access-om3.mom6.2d.bgc.shelf.hourly.mean.%4yr-%2mo", "all", "mean", "118 121 -20.5 -14 -1 -1", 2
"generic_wombatlite", "sedomega_cal", "sedomega_cal", "access-om3.mom6.2d.bgc.shelf.hourly.mean.%4yr-%2mo", "all", "mean", "118 121 -20.5 -14 -1 -1", 2
"generic_wombatlite", "det_sed_depst", "det_sed_depst", "access-om3.mom6.2d.bgc.shelf.hourly.mean.%4yr-%2mo", "all", "mean", "118 121 -20.5 -14 -1 -1", 2
"generic_wombatlite", "dic_kw", "dic_kw", "access-om3.mom6.2d.bgc.shelf.hourly.mean.%4yr-%2mo", "all","mean","118 121 -20.5 -14 -1 -1",2
"generic_wombatlite", "dic_stf_gas", "dic_stf_gas", "access-om3.mom6.2d.bgc.shelf.hourly.mean.%4yr-%2mo", "all","mean","118 121 -20.5 -14 -1 -1",2



# 3d BGC fields Shelf domain hourly

"access-om3.mom6.3d.bgc.shelf.hourly.mean.%4yr-%2mo", 1, "hours", 1, "days", "time", 1, "years"
"generic_wombatlite", "caco3", "caco3", "access-om3.mom6.3d.bgc.shelf.hourly.mean.%4yr-%2mo", "all",  "mean", "118 121 -20.5 -14 -1 -1", 2
"generic_wombatlite", "dic", "dic", "access-om3.mom6.3d.bgc.shelf.hourly.mean.%4yr-%2mo", "all",  "mean", "118 121 -20.5 -14 -1 -1", 2
"generic_wombatlite", "alk", "alk", "access-om3.mom6.3d.bgc.shelf.hourly.mean.%4yr-%2mo", "all",  "mean", "118 121 -20.5 -14 -1 -1", 2
"generic_wombatlite", "dicr", "dicr", "access-om3.mom6.3d.bgc.shelf.hourly.mean.%4yr-%2mo", "all",  "mean", "118 121 -20.5 -14 -1 -1", 2
"generic_wombatlite", "dicp", "dicp", "access-om3.mom6.3d.bgc.shelf.hourly.mean.%4yr-%2mo", "all",  "mean", "118 121 -20.5 -14 -1 -1", 2